/*--------------------------------*- C++ -*----------------------------------*\
  =========                 |
  \\      /  F ield         | OpenFOAM: The Open Source CFD Toolbox
   \\    /   O peration     | Website:  https://openfoam.org
    \\  /    A nd           | Version:  10
     \\/     M anipulation  |
\*---------------------------------------------------------------------------*/
FoamFile
{
    format      ascii;
    class       polyBoundaryMesh;
    location    "constant/polyMesh";
    object      boundary;
}
// * * * * * * * * * * * * * * * * * * * * * * * * * * * * * * * * * * * * * //

9
(
    bottom
    {
        type            wall;
        inGroups        List<word> 1(wall);
        nFaces          150;
        startFace       50540;
    }
    top
    {
        type            wall;
        inGroups        List<word> 1(wall);
        nFaces          150;
        startFace       50690;
    }
    inlet
    {
        type            patch;
        nFaces          30;
        startFace       50840;
    }
    outlet
    {
        type            patch;
        nFaces          30;
        startFace       50870;
    }
    left
    {
        type            wall;
        inGroups        List<word> 1(wall);
        nFaces          30;
        startFace       50900;
    }
    right
    {
        type            wall;
        inGroups        List<word> 1(wall);
        nFaces          30;
        startFace       50930;
    }
    front
    {
        type            empty;
        inGroups        List<word> 1(empty);
        nFaces          25500;
        startFace       50960;
    }
    back
    {
        type            empty;
        inGroups        List<word> 1(empty);
        nFaces          25500;
        startFace       76460;
    }
    defaultFaces
    {
        type            empty;
        inGroups        List<word> 1(empty);
        nFaces          500;
        startFace       101960;
    }
)

// ************************************************************************* //
