FoamFile
{
    version     2.0;
    format      ascii;
    class       dictionary;
    object      physicalProperties;
}
viscosityModel  constant;
rho     [1 -3 0 0 0 0 0] 1200;   // setz deinen Wert
nu      [0 2 -1 0 0 0 0] 5e-6;   // NICHT 0
