FoamFile
{
    version     2.0;
    format      ascii;
    class       dictionary;
    object      blockMeshDict;
}

scale 0.001;

vertices
(
    // =========================
    // Hauptblock
    // =========================
    (-15 -0.5  0)   // 0
    (-15  0.5  0)   // 1
    ( 15  0.5  0)   // 2
    ( 15 -0.5  0)   // 3

    (-15 -0.5  5)   // 4
    (-15  0.5  5)   // 5
    ( 15  0.5  5)   // 6
    ( 15 -0.5  5)   // 7

    // =========================
    // Inlet-Pipe (links)
    // =========================
    (-20 -0.5  0.5)   // 8
    (-20  0.5  0.5)   // 9
    (-15  0.5  0.5)   // 10
    (-15 -0.5  0.5)   // 11

    (-20 -0.5  1.5)   // 12
    (-20  0.5  1.5)   // 13
    (-15  0.5  1.5)   // 14
    (-15 -0.5  1.5)   // 15

    // =========================
    // Outlet-Pipe (rechts)
    // =========================
    ( 15 -0.5  0.5)   // 16
    ( 15  0.5  0.5)   // 17
    ( 20  0.5  0.5)   // 18
    ( 20 -0.5  0.5)   // 19

    ( 15 -0.5  1.5)   // 20
    ( 15  0.5  1.5)   // 21
    ( 20  0.5  1.5)   // 22
    ( 20 -0.5  1.5)   // 23
);

blocks
(
    // Hauptblock
    hex (0 3 2 1 4 7 6 5) (150 1 150) simpleGrading (1 1 5)

    // Inlet-Pipe
    hex (8 11 10 9 12 15 14 13) (50 1 30) simpleGrading (1 1 1)

    // Outlet-Pipe
    hex (16 19 18 17 20 23 22 21) (50 1 30) simpleGrading (1 1 1)
);


boundary
(
    bottom
    {
        type wall;
        faces
        (
            (0 3 2 1)
        );
    }

    top
    {
        type wall;
        faces
        (
            (4 5 6 7)
        );
    }

    // =========================
    // Inlet
    // =========================
    inlet
    {
        type patch;
        faces
        (
            (8 9 13 12)
        );
    }

    // =========================
    // Outlet
    // =========================
    outlet
    {
        type patch;
        faces
        (
            (19 18 22 23)
        );
    }

    left
    {
        type wall;
        faces
        (
            (10 11 15 14)
        );
    }

    right
    {
        type wall;
        faces
        (
            (16 17 21 20)
        );
    }

    front
    {
        type empty;
        faces
        (
            (0 4 7 3)
            (8 12 15 11)
            (16 20 23 19)
        );
    }

    back
    {
        type empty;
        faces
        (
            (1 2 6 5)
            (9 10 14 13)
            (17 18 22 21)
        );
    }
);
